FoamFile
{
    version     2.0;
    format      ascii;
    class       dictionary;
    location    "system";
    object      surfaceFeaturesDict;
}
surfaces
(
    "solid.stl"
    //"outer.stl"
);
includedAngle 165.0;
subsetFeatures
{
    nonManifoldEdges no;
    openEdges yes;
}
writeObj yes;
